
Version,
  24.2;                                   !- Version Identifier

Timestep,
  1;                                      !- Number of Timesteps per Hour

LifeCycleCost:Parameters,
  Life Cycle Cost Parameters,             !- Name
  EndOfYear,                              !- Discounting Convention
  ConstantDollar,                         !- Inflation Approach
  0.03,                                   !- Real Discount Rate
  ,                                       !- Nominal Discount Rate
  ,                                       !- Inflation
  ,                                       !- Base Date Month
  2011,                                   !- Base Date Year
  ,                                       !- Service Date Month
  2011,                                   !- Service Date Year
  25,                                     !- Length of Study Period in Years
  ,                                       !- Tax rate
  None;                                   !- Depreciation Method

LifeCycleCost:UsePriceEscalation,
  U.S. Avg  Commercial-Electricity,       !- Name
  Electricity,                            !- Resource
  2011,                                   !- Escalation Start Year
  January,                                !- Escalation Start Month
  0.9838,                                 !- Year Escalation 1
  0.9730,                                 !- Year Escalation 2
  0.9632,                                 !- Year Escalation 3
  0.9611,                                 !- Year Escalation 4
  0.9571,                                 !- Year Escalation 5
  0.9553,                                 !- Year Escalation 6
  0.9539,                                 !- Year Escalation 7
  0.9521,                                 !- Year Escalation 8
  0.9546,                                 !- Year Escalation 9
  0.9550,                                 !- Year Escalation 10
  0.9553,                                 !- Year Escalation 11
  0.9564,                                 !- Year Escalation 12
  0.9575,                                 !- Year Escalation 13
  0.9596,                                 !- Year Escalation 14
  0.9618,                                 !- Year Escalation 15
  0.9614,                                 !- Year Escalation 16
  0.9618,                                 !- Year Escalation 17
  0.9618,                                 !- Year Escalation 18
  0.9593,                                 !- Year Escalation 19
  0.9589,                                 !- Year Escalation 20
  0.9607,                                 !- Year Escalation 21
  0.9625,                                 !- Year Escalation 22
  0.9650,                                 !- Year Escalation 23
  0.9708,                                 !- Year Escalation 24
  0.9751,                                 !- Year Escalation 25
  0.9762,                                 !- Year Escalation 26
  0.9766,                                 !- Year Escalation 27
  0.9766,                                 !- Year Escalation 28
  0.9769,                                 !- Year Escalation 29
  0.9773;                                 !- Year Escalation 30

LifeCycleCost:UsePriceEscalation,
  U.S. Avg  Commercial-Distillate Oil,    !- Name
  FuelOilNo1,                             !- Resource
  2011,                                   !- Escalation Start Year
  January,                                !- Escalation Start Month
  0.9714,                                 !- Year Escalation 1
  0.9730,                                 !- Year Escalation 2
  0.9942,                                 !- Year Escalation 3
  1.0164,                                 !- Year Escalation 4
  1.0541,                                 !- Year Escalation 5
  1.0928,                                 !- Year Escalation 6
  1.1267,                                 !- Year Escalation 7
  1.1580,                                 !- Year Escalation 8
  1.1792,                                 !- Year Escalation 9
  1.1967,                                 !- Year Escalation 10
  1.2200,                                 !- Year Escalation 11
  1.2333,                                 !- Year Escalation 12
  1.2566,                                 !- Year Escalation 13
  1.2709,                                 !- Year Escalation 14
  1.2826,                                 !- Year Escalation 15
  1.2985,                                 !- Year Escalation 16
  1.3102,                                 !- Year Escalation 17
  1.3250,                                 !- Year Escalation 18
  1.3261,                                 !- Year Escalation 19
  1.3282,                                 !- Year Escalation 20
  1.3324,                                 !- Year Escalation 21
  1.3356,                                 !- Year Escalation 22
  1.3431,                                 !- Year Escalation 23
  1.3510,                                 !- Year Escalation 24
  1.3568,                                 !- Year Escalation 25
  1.3606,                                 !- Year Escalation 26
  1.3637,                                 !- Year Escalation 27
  1.3674,                                 !- Year Escalation 28
  1.3706,                                 !- Year Escalation 29
  1.3743;                                 !- Year Escalation 30

LifeCycleCost:UsePriceEscalation,
  U.S. Avg  Commercial-Residual Oil,      !- Name
  FuelOilNo2,                             !- Resource
  2011,                                   !- Escalation Start Year
  January,                                !- Escalation Start Month
  0.8469,                                 !- Year Escalation 1
  0.8257,                                 !- Year Escalation 2
  0.8681,                                 !- Year Escalation 3
  0.8988,                                 !- Year Escalation 4
  0.9289,                                 !- Year Escalation 5
  0.9604,                                 !- Year Escalation 6
  0.9897,                                 !- Year Escalation 7
  1.0075,                                 !- Year Escalation 8
  1.0314,                                 !- Year Escalation 9
  1.0554,                                 !- Year Escalation 10
  1.0861,                                 !- Year Escalation 11
  1.1278,                                 !- Year Escalation 12
  1.1497,                                 !- Year Escalation 13
  1.1620,                                 !- Year Escalation 14
  1.1743,                                 !- Year Escalation 15
  1.1852,                                 !- Year Escalation 16
  1.1948,                                 !- Year Escalation 17
  1.2037,                                 !- Year Escalation 18
  1.2071,                                 !- Year Escalation 19
  1.2119,                                 !- Year Escalation 20
  1.2139,                                 !- Year Escalation 21
  1.2194,                                 !- Year Escalation 22
  1.2276,                                 !- Year Escalation 23
  1.2365,                                 !- Year Escalation 24
  1.2420,                                 !- Year Escalation 25
  1.2461,                                 !- Year Escalation 26
  1.2509,                                 !- Year Escalation 27
  1.2550,                                 !- Year Escalation 28
  1.2591,                                 !- Year Escalation 29
  1.2638;                                 !- Year Escalation 30

LifeCycleCost:UsePriceEscalation,
  U.S. Avg  Commercial-Natural gas,       !- Name
  NaturalGas,                             !- Resource
  2011,                                   !- Escalation Start Year
  January,                                !- Escalation Start Month
  0.9823,                                 !- Year Escalation 1
  0.9557,                                 !- Year Escalation 2
  0.9279,                                 !- Year Escalation 3
  0.9257,                                 !- Year Escalation 4
  0.9346,                                 !- Year Escalation 5
  0.9412,                                 !- Year Escalation 6
  0.9512,                                 !- Year Escalation 7
  0.9645,                                 !- Year Escalation 8
  0.9856,                                 !- Year Escalation 9
  1.0067,                                 !- Year Escalation 10
  1.0222,                                 !- Year Escalation 11
  1.0410,                                 !- Year Escalation 12
  1.0610,                                 !- Year Escalation 13
  1.0787,                                 !- Year Escalation 14
  1.0942,                                 !- Year Escalation 15
  1.1098,                                 !- Year Escalation 16
  1.1220,                                 !- Year Escalation 17
  1.1308,                                 !- Year Escalation 18
  1.1386,                                 !- Year Escalation 19
  1.1486,                                 !- Year Escalation 20
  1.1619,                                 !- Year Escalation 21
  1.1763,                                 !- Year Escalation 22
  1.1918,                                 !- Year Escalation 23
  1.2118,                                 !- Year Escalation 24
  1.2284,                                 !- Year Escalation 25
  1.2439,                                 !- Year Escalation 26
  1.2605,                                 !- Year Escalation 27
  1.2772,                                 !- Year Escalation 28
  1.2938,                                 !- Year Escalation 29
  1.3115;                                 !- Year Escalation 30

LifeCycleCost:UsePriceEscalation,
  U.S. Avg  Commercial-Coal,              !- Name
  Coal,                                   !- Resource
  2011,                                   !- Escalation Start Year
  January,                                !- Escalation Start Month
  0.9970,                                 !- Year Escalation 1
  1.0089,                                 !- Year Escalation 2
  1.0089,                                 !- Year Escalation 3
  0.9941,                                 !- Year Escalation 4
  0.9941,                                 !- Year Escalation 5
  1.0000,                                 !- Year Escalation 6
  1.0030,                                 !- Year Escalation 7
  1.0059,                                 !- Year Escalation 8
  1.0089,                                 !- Year Escalation 9
  1.0119,                                 !- Year Escalation 10
  1.0148,                                 !- Year Escalation 11
  1.0178,                                 !- Year Escalation 12
  1.0208,                                 !- Year Escalation 13
  1.0267,                                 !- Year Escalation 14
  1.0297,                                 !- Year Escalation 15
  1.0356,                                 !- Year Escalation 16
  1.0415,                                 !- Year Escalation 17
  1.0534,                                 !- Year Escalation 18
  1.0564,                                 !- Year Escalation 19
  1.0593,                                 !- Year Escalation 20
  1.0653,                                 !- Year Escalation 21
  1.0712,                                 !- Year Escalation 22
  1.0742,                                 !- Year Escalation 23
  1.0801,                                 !- Year Escalation 24
  1.0831,                                 !- Year Escalation 25
  1.0831,                                 !- Year Escalation 26
  1.0861,                                 !- Year Escalation 27
  1.0890,                                 !- Year Escalation 28
  1.0920,                                 !- Year Escalation 29
  1.0950;                                 !- Year Escalation 30

Building,
  NUs_RC1,                                !- Name
  0,                                      !- North Axis {deg}
  City,                                   !- Terrain
  ,                                       !- Loads Convergence Tolerance Value {W}
  ,                                       !- Temperature Convergence Tolerance Value {deltaC}
  FullExteriorWithReflections,            !- Solar Distribution
  ,                                       !- Maximum Number of Warmup Days
  ;                                       !- Minimum Number of Warmup Days

Shading:Building:Detailed,
  Door_06cdfc69,                          !- Name
  ,                                       !- Transmittance Schedule Name
  ,                                       !- Number of Vertices
  62.7451169017129, -7.450090895144, 2.743902439025, !- X,Y,Z Vertex 1 {m}
  62.7451169017129, -7.450090895144, 0.609756097561, !- X,Y,Z Vertex 2 {m}
  61.003215680258, -7.450090895144, 0.609756097561, !- X,Y,Z Vertex 3 {m}
  61.003215680258, -7.450090895144, 2.743902439025; !- X,Y,Z Vertex 4 {m}

ShadingProperty:Reflectance,
  Door_06cdfc69,                          !- Shading Surface Name
  0.3,                                    !- Diffuse Solar Reflectance of Unglazed Part of Shading Surface
  0.3,                                    !- Diffuse Visible Reflectance of Unglazed Part of Shading Surface
  0;                                      !- Fraction of Shading Surface That Is Glazed

Shading:Building:Detailed,
  Door_16c5703e,                          !- Name
  ,                                       !- Transmittance Schedule Name
  ,                                       !- Number of Vertices
  45.9594026159986, -7.450090895144, 2.743902439025, !- X,Y,Z Vertex 1 {m}
  45.9594026159986, -7.450090895144, 0.609756097561, !- X,Y,Z Vertex 2 {m}
  44.2175013945437, -7.450090895144, 0.609756097561, !- X,Y,Z Vertex 3 {m}
  44.2175013945436, -7.450090895144, 2.743902439025; !- X,Y,Z Vertex 4 {m}

ShadingProperty:Reflectance,
  Door_16c5703e,                          !- Shading Surface Name
  0.3,                                    !- Diffuse Solar Reflectance of Unglazed Part of Shading Surface
  0.3,                                    !- Diffuse Visible Reflectance of Unglazed Part of Shading Surface
  0;                                      !- Fraction of Shading Surface That Is Glazed

Shading:Building:Detailed,
  Door_16f24ab5,                          !- Name
  ,                                       !- Transmittance Schedule Name
  ,                                       !- Number of Vertices
  145.173688330284, 58.549909104856, 2.743902439025, !- X,Y,Z Vertex 1 {m}
  145.173688330284, 58.549909104856, 0.609756097561, !- X,Y,Z Vertex 2 {m}
  143.431787108829, 58.549909104856, 0.609756097561, !- X,Y,Z Vertex 3 {m}
  143.431787108829, 58.549909104856, 2.743902439025; !- X,Y,Z Vertex 4 {m}

ShadingProperty:Reflectance,
  Door_16f24ab5,                          !- Shading Surface Name
  0.3,                                    !- Diffuse Solar Reflectance of Unglazed Part of Shading Surface
  0.3,                                    !- Diffuse Visible Reflectance of Unglazed Part of Shading Surface
  0;                                      !- Fraction of Shading Surface That Is Glazed

Shading:Building:Detailed,
  Door_1e50246a,                          !- Name
  ,                                       !- Transmittance Schedule Name
  ,                                       !- Number of Vertices
  -4.39774024114422, -7.450090895144, 2.743902439025, !- X,Y,Z Vertex 1 {m}
  -4.39774024114422, -7.450090895144, 0.609756097561, !- X,Y,Z Vertex 2 {m}
  -6.13964146259921, -7.450090895144, 0.609756097561, !- X,Y,Z Vertex 3 {m}
  -6.13964146259922, -7.450090895144, 2.743902439025; !- X,Y,Z Vertex 4 {m}

ShadingProperty:Reflectance,
  Door_1e50246a,                          !- Shading Surface Name
  0.3,                                    !- Diffuse Solar Reflectance of Unglazed Part of Shading Surface
  0.3,                                    !- Diffuse Visible Reflectance of Unglazed Part of Shading Surface
  0;                                      !- Fraction of Shading Surface That Is Glazed

Shading:Building:Detailed,
  Door_26099975,                          !- Name
  ,                                       !- Transmittance Schedule Name
  ,                                       !- Number of Vertices
  111.602259758856, -7.450090895144, 2.743902439025, !- X,Y,Z Vertex 1 {m}
  111.602259758856, -7.450090895144, 0.609756097561, !- X,Y,Z Vertex 2 {m}
  109.860358537401, -7.450090895144, 0.609756097561, !- X,Y,Z Vertex 3 {m}
  109.860358537401, -7.450090895144, 2.743902439025; !- X,Y,Z Vertex 4 {m}

ShadingProperty:Reflectance,
  Door_26099975,                          !- Shading Surface Name
  0.3,                                    !- Diffuse Solar Reflectance of Unglazed Part of Shading Surface
  0.3,                                    !- Diffuse Visible Reflectance of Unglazed Part of Shading Surface
  0;                                      !- Fraction of Shading Surface That Is Glazed

Shading:Building:Detailed,
  Door_3885d8b8,                          !- Name
  ,                                       !- Transmittance Schedule Name
  ,                                       !- Number of Vertices
  128.38797404457, 58.549909104856, 2.743902439025, !- X,Y,Z Vertex 1 {m}
  128.38797404457, 58.549909104856, 0.609756097561, !- X,Y,Z Vertex 2 {m}
  126.646072823115, 58.549909104856, 0.609756097561, !- X,Y,Z Vertex 3 {m}
  126.646072823115, 58.549909104856, 2.743902439025; !- X,Y,Z Vertex 4 {m}

ShadingProperty:Reflectance,
  Door_3885d8b8,                          !- Shading Surface Name
  0.3,                                    !- Diffuse Solar Reflectance of Unglazed Part of Shading Surface
  0.3,                                    !- Diffuse Visible Reflectance of Unglazed Part of Shading Surface
  0;                                      !- Fraction of Shading Surface That Is Glazed

Shading:Building:Detailed,
  Door_5dff009a,                          !- Name
  ,                                       !- Transmittance Schedule Name
  ,                                       !- Number of Vertices
  79.5308311874272, 58.549909104856, 2.743902439025, !- X,Y,Z Vertex 1 {m}
  79.5308311874272, 58.549909104856, 0.609756097561, !- X,Y,Z Vertex 2 {m}
  77.7889299659722, 58.549909104856, 0.609756097561, !- X,Y,Z Vertex 3 {m}
  77.7889299659722, 58.549909104856, 2.743902439025; !- X,Y,Z Vertex 4 {m}

ShadingProperty:Reflectance,
  Door_5dff009a,                          !- Shading Surface Name
  0.3,                                    !- Diffuse Solar Reflectance of Unglazed Part of Shading Surface
  0.3,                                    !- Diffuse Visible Reflectance of Unglazed Part of Shading Surface
  0;                                      !- Fraction of Shading Surface That Is Glazed

Shading:Building:Detailed,
  Door_5e4c01e5,                          !- Name
  ,                                       !- Transmittance Schedule Name
  ,                                       !- Number of Vertices
  161.959402615999, 58.549909104856, 2.743902439025, !- X,Y,Z Vertex 1 {m}
  161.959402615999, 58.549909104856, 0.609756097561, !- X,Y,Z Vertex 2 {m}
  160.217501394544, 58.549909104856, 0.609756097561, !- X,Y,Z Vertex 3 {m}
  160.217501394544, 58.549909104856, 2.743902439025; !- X,Y,Z Vertex 4 {m}

ShadingProperty:Reflectance,
  Door_5e4c01e5,                          !- Shading Surface Name
  0.3,                                    !- Diffuse Solar Reflectance of Unglazed Part of Shading Surface
  0.3,                                    !- Diffuse Visible Reflectance of Unglazed Part of Shading Surface
  0;                                      !- Fraction of Shading Surface That Is Glazed

Shading:Building:Detailed,
  Door_600051ea,                          !- Name
  ,                                       !- Transmittance Schedule Name
  ,                                       !- Number of Vertices
  -4.39774024114422, 58.549909104856, 2.743902439025, !- X,Y,Z Vertex 1 {m}
  -4.39774024114422, 58.549909104856, 0.609756097561, !- X,Y,Z Vertex 2 {m}
  -6.13964146259921, 58.549909104856, 0.609756097561, !- X,Y,Z Vertex 3 {m}
  -6.13964146259922, 58.549909104856, 2.743902439025; !- X,Y,Z Vertex 4 {m}

ShadingProperty:Reflectance,
  Door_600051ea,                          !- Shading Surface Name
  0.3,                                    !- Diffuse Solar Reflectance of Unglazed Part of Shading Surface
  0.3,                                    !- Diffuse Visible Reflectance of Unglazed Part of Shading Surface
  0;                                      !- Fraction of Shading Surface That Is Glazed

Shading:Building:Detailed,
  Door_6aa5cfce,                          !- Name
  ,                                       !- Transmittance Schedule Name
  ,                                       !- Number of Vertices
  161.959402615999, -7.450090895144, 2.743902439025, !- X,Y,Z Vertex 1 {m}
  161.959402615999, -7.450090895144, 0.609756097561, !- X,Y,Z Vertex 2 {m}
  160.217501394544, -7.450090895144, 0.609756097561, !- X,Y,Z Vertex 3 {m}
  160.217501394544, -7.450090895144, 2.743902439025; !- X,Y,Z Vertex 4 {m}

ShadingProperty:Reflectance,
  Door_6aa5cfce,                          !- Shading Surface Name
  0.3,                                    !- Diffuse Solar Reflectance of Unglazed Part of Shading Surface
  0.3,                                    !- Diffuse Visible Reflectance of Unglazed Part of Shading Surface
  0;                                      !- Fraction of Shading Surface That Is Glazed

Shading:Building:Detailed,
  Door_6d948574,                          !- Name
  ,                                       !- Transmittance Schedule Name
  ,                                       !- Number of Vertices
  79.5308311874272, -7.450090895144, 2.743902439025, !- X,Y,Z Vertex 1 {m}
  79.5308311874272, -7.450090895144, 0.609756097561, !- X,Y,Z Vertex 2 {m}
  77.7889299659722, -7.450090895144, 0.609756097561, !- X,Y,Z Vertex 3 {m}
  77.7889299659722, -7.450090895144, 2.743902439025; !- X,Y,Z Vertex 4 {m}

ShadingProperty:Reflectance,
  Door_6d948574,                          !- Shading Surface Name
  0.3,                                    !- Diffuse Solar Reflectance of Unglazed Part of Shading Surface
  0.3,                                    !- Diffuse Visible Reflectance of Unglazed Part of Shading Surface
  0;                                      !- Fraction of Shading Surface That Is Glazed

Shading:Building:Detailed,
  Door_89133f57,                          !- Name
  ,                                       !- Transmittance Schedule Name
  ,                                       !- Number of Vertices
  178.745116901713, 58.549909104856, 2.743902439025, !- X,Y,Z Vertex 1 {m}
  178.745116901713, 58.549909104856, 0.609756097561, !- X,Y,Z Vertex 2 {m}
  177.003215680258, 58.549909104856, 0.609756097561, !- X,Y,Z Vertex 3 {m}
  177.003215680258, 58.549909104856, 2.743902439025; !- X,Y,Z Vertex 4 {m}

ShadingProperty:Reflectance,
  Door_89133f57,                          !- Shading Surface Name
  0.3,                                    !- Diffuse Solar Reflectance of Unglazed Part of Shading Surface
  0.3,                                    !- Diffuse Visible Reflectance of Unglazed Part of Shading Surface
  0;                                      !- Fraction of Shading Surface That Is Glazed

Shading:Building:Detailed,
  Door_8c4343a7,                          !- Name
  ,                                       !- Transmittance Schedule Name
  ,                                       !- Number of Vertices
  29.1736883302843, -7.450090895144, 2.743902439025, !- X,Y,Z Vertex 1 {m}
  29.1736883302843, -7.450090895144, 0.609756097561, !- X,Y,Z Vertex 2 {m}
  27.4317871088294, -7.450090895144, 0.609756097561, !- X,Y,Z Vertex 3 {m}
  27.4317871088294, -7.450090895144, 2.743902439025; !- X,Y,Z Vertex 4 {m}

ShadingProperty:Reflectance,
  Door_8c4343a7,                          !- Shading Surface Name
  0.3,                                    !- Diffuse Solar Reflectance of Unglazed Part of Shading Surface
  0.3,                                    !- Diffuse Visible Reflectance of Unglazed Part of Shading Surface
  0;                                      !- Fraction of Shading Surface That Is Glazed

Shading:Building:Detailed,
  Door_8c74e430,                          !- Name
  ,                                       !- Transmittance Schedule Name
  ,                                       !- Number of Vertices
  128.38797404457, -7.450090895144, 2.743902439025, !- X,Y,Z Vertex 1 {m}
  128.38797404457, -7.450090895144, 0.609756097561, !- X,Y,Z Vertex 2 {m}
  126.646072823115, -7.450090895144, 0.609756097561, !- X,Y,Z Vertex 3 {m}
  126.646072823115, -7.450090895144, 2.743902439025; !- X,Y,Z Vertex 4 {m}

ShadingProperty:Reflectance,
  Door_8c74e430,                          !- Shading Surface Name
  0.3,                                    !- Diffuse Solar Reflectance of Unglazed Part of Shading Surface
  0.3,                                    !- Diffuse Visible Reflectance of Unglazed Part of Shading Surface
  0;                                      !- Fraction of Shading Surface That Is Glazed

Shading:Building:Detailed,
  Door_967fe9d7,                          !- Name
  ,                                       !- Transmittance Schedule Name
  ,                                       !- Number of Vertices
  145.173688330284, -7.450090895144, 2.743902439025, !- X,Y,Z Vertex 1 {m}
  145.173688330284, -7.450090895144, 0.609756097561, !- X,Y,Z Vertex 2 {m}
  143.431787108829, -7.450090895144, 0.609756097561, !- X,Y,Z Vertex 3 {m}
  143.431787108829, -7.450090895144, 2.743902439025; !- X,Y,Z Vertex 4 {m}

ShadingProperty:Reflectance,
  Door_967fe9d7,                          !- Shading Surface Name
  0.3,                                    !- Diffuse Solar Reflectance of Unglazed Part of Shading Surface
  0.3,                                    !- Diffuse Visible Reflectance of Unglazed Part of Shading Surface
  0;                                      !- Fraction of Shading Surface That Is Glazed

Shading:Building:Detailed,
  Door_b2a14e04,                          !- Name
  ,                                       !- Transmittance Schedule Name
  ,                                       !- Number of Vertices
  111.602259758856, 58.549909104856, 2.743902439025, !- X,Y,Z Vertex 1 {m}
  111.602259758856, 58.549909104856, 0.609756097561, !- X,Y,Z Vertex 2 {m}
  109.860358537401, 58.549909104856, 0.609756097561, !- X,Y,Z Vertex 3 {m}
  109.860358537401, 58.549909104856, 2.743902439025; !- X,Y,Z Vertex 4 {m}

ShadingProperty:Reflectance,
  Door_b2a14e04,                          !- Shading Surface Name
  0.3,                                    !- Diffuse Solar Reflectance of Unglazed Part of Shading Surface
  0.3,                                    !- Diffuse Visible Reflectance of Unglazed Part of Shading Surface
  0;                                      !- Fraction of Shading Surface That Is Glazed

Shading:Building:Detailed,
  Door_b3dce5a7,                          !- Name
  ,                                       !- Transmittance Schedule Name
  ,                                       !- Number of Vertices
  45.9594026159986, 58.549909104856, 2.743902439025, !- X,Y,Z Vertex 1 {m}
  45.9594026159986, 58.549909104856, 0.609756097561, !- X,Y,Z Vertex 2 {m}
  44.2175013945437, 58.549909104856, 0.609756097561, !- X,Y,Z Vertex 3 {m}
  44.2175013945436, 58.549909104856, 2.743902439025; !- X,Y,Z Vertex 4 {m}

ShadingProperty:Reflectance,
  Door_b3dce5a7,                          !- Shading Surface Name
  0.3,                                    !- Diffuse Solar Reflectance of Unglazed Part of Shading Surface
  0.3,                                    !- Diffuse Visible Reflectance of Unglazed Part of Shading Surface
  0;                                      !- Fraction of Shading Surface That Is Glazed

Shading:Building:Detailed,
  Door_b8370c3c,                          !- Name
  ,                                       !- Transmittance Schedule Name
  ,                                       !- Number of Vertices
  12.3879740445701, 58.549909104856, 2.743902439025, !- X,Y,Z Vertex 1 {m}
  12.3879740445701, 58.549909104856, 0.609756097561, !- X,Y,Z Vertex 2 {m}
  10.6460728231151, 58.549909104856, 0.609756097561, !- X,Y,Z Vertex 3 {m}
  10.6460728231151, 58.549909104856, 2.743902439025; !- X,Y,Z Vertex 4 {m}

ShadingProperty:Reflectance,
  Door_b8370c3c,                          !- Shading Surface Name
  0.3,                                    !- Diffuse Solar Reflectance of Unglazed Part of Shading Surface
  0.3,                                    !- Diffuse Visible Reflectance of Unglazed Part of Shading Surface
  0;                                      !- Fraction of Shading Surface That Is Glazed

Shading:Building:Detailed,
  Door_caa370e9,                          !- Name
  ,                                       !- Transmittance Schedule Name
  ,                                       !- Number of Vertices
  29.1736883302843, 58.549909104856, 2.743902439025, !- X,Y,Z Vertex 1 {m}
  29.1736883302843, 58.549909104856, 0.609756097561, !- X,Y,Z Vertex 2 {m}
  27.4317871088294, 58.549909104856, 0.609756097561, !- X,Y,Z Vertex 3 {m}
  27.4317871088294, 58.549909104856, 2.743902439025; !- X,Y,Z Vertex 4 {m}

ShadingProperty:Reflectance,
  Door_caa370e9,                          !- Shading Surface Name
  0.3,                                    !- Diffuse Solar Reflectance of Unglazed Part of Shading Surface
  0.3,                                    !- Diffuse Visible Reflectance of Unglazed Part of Shading Surface
  0;                                      !- Fraction of Shading Surface That Is Glazed

Shading:Building:Detailed,
  Door_ccd72221,                          !- Name