
Version,
  24.2;                                   !- Version Identifier

Timestep,
  1;                                      !- Number of Timesteps per Hour

LifeCycleCost:Parameters,
  Life Cycle Cost Parameters,             !- Name
  EndOfYear,                              !- Discounting Convention
  ConstantDollar,                         !- Inflation Approach
  0.03,                                   !- Real Discount Rate
  ,                                       !- Nominal Discount Rate
  ,                                       !- Inflation
  ,                                       !- Base Date Month
  2011,                                   !- Base Date Year
  ,                                       !- Service Date Month
  2011,                                   !- Service Date Year
  25,                                     !- Length of Study Period in Years
  ,                                       !- Tax rate
  None;                                   !- Depreciation Method

LifeCycleCost:UsePriceEscalation,
  U.S. Avg  Commercial-Electricity,       !- Name
  Electricity,                            !- Resource
  2011,                                   !- Escalation Start Year
  January,                                !- Escalation Start Month
  0.9838,                                 !- Year Escalation 1
  0.9730,                                 !- Year Escalation 2
  0.9632,                                 !- Year Escalation 3
  0.9611,                                 !- Year Escalation 4
  0.9571,                                 !- Year Escalation 5
  0.9553,                                 !- Year Escalation 6
  0.9539,                                 !- Year Escalation 7
  0.9521,                                 !- Year Escalation 8
  0.9546,                                 !- Year Escalation 9
  0.9550,                                 !- Year Escalation 10
  0.9553,                                 !- Year Escalation 11
  0.9564,                                 !- Year Escalation 12
  0.9575,                                 !- Year Escalation 13
  0.9596,                                 !- Year Escalation 14
  0.9618,                                 !- Year Escalation 15
  0.9614,                                 !- Year Escalation 16
  0.9618,                                 !- Year Escalation 17
  0.9618,                                 !- Year Escalation 18
  0.9593,                                 !- Year Escalation 19
  0.9589,                                 !- Year Escalation 20
  0.9607,                                 !- Year Escalation 21
  0.9625,                                 !- Year Escalation 22
  0.9650,                                 !- Year Escalation 23
  0.9708,                                 !- Year Escalation 24
  0.9751,                                 !- Year Escalation 25
  0.9762,                                 !- Year Escalation 26
  0.9766,                                 !- Year Escalation 27
  0.9766,                                 !- Year Escalation 28
  0.9769,                                 !- Year Escalation 29
  0.9773;                                 !- Year Escalation 30

LifeCycleCost:UsePriceEscalation,
  U.S. Avg  Commercial-Distillate Oil,    !- Name
  FuelOilNo1,                             !- Resource
  2011,                                   !- Escalation Start Year
  January,                                !- Escalation Start Month
  0.9714,                                 !- Year Escalation 1
  0.9730,                                 !- Year Escalation 2
  0.9942,                                 !- Year Escalation 3
  1.0164,                                 !- Year Escalation 4
  1.0541,                                 !- Year Escalation 5
  1.0928,                                 !- Year Escalation 6
  1.1267,                                 !- Year Escalation 7
  1.1580,                                 !- Year Escalation 8
  1.1792,                                 !- Year Escalation 9
  1.1967,                                 !- Year Escalation 10
  1.2200,                                 !- Year Escalation 11
  1.2333,                                 !- Year Escalation 12
  1.2566,                                 !- Year Escalation 13
  1.2709,                                 !- Year Escalation 14
  1.2826,                                 !- Year Escalation 15
  1.2985,                                 !- Year Escalation 16
  1.3102,                                 !- Year Escalation 17
  1.3250,                                 !- Year Escalation 18
  1.3261,                                 !- Year Escalation 19
  1.3282,                                 !- Year Escalation 20
  1.3324,                                 !- Year Escalation 21
  1.3356,                                 !- Year Escalation 22
  1.3431,                                 !- Year Escalation 23
  1.3510,                                 !- Year Escalation 24
  1.3568,                                 !- Year Escalation 25
  1.3606,                                 !- Year Escalation 26
  1.3637,                                 !- Year Escalation 27
  1.3674,                                 !- Year Escalation 28
  1.3706,                                 !- Year Escalation 29
  1.3743;                                 !- Year Escalation 30

LifeCycleCost:UsePriceEscalation,
  U.S. Avg  Commercial-Residual Oil,      !- Name
  FuelOilNo2,                             !- Resource
  2011,                                   !- Escalation Start Year
  January,                                !- Escalation Start Month
  0.8469,                                 !- Year Escalation 1
  0.8257,                                 !- Year Escalation 2
  0.8681,                                 !- Year Escalation 3
  0.8988,                                 !- Year Escalation 4
  0.9289,                                 !- Year Escalation 5
  0.9604,                                 !- Year Escalation 6
  0.9897,                                 !- Year Escalation 7
  1.0075,                                 !- Year Escalation 8
  1.0314,                                 !- Year Escalation 9
  1.0554,                                 !- Year Escalation 10
  1.0861,                                 !- Year Escalation 11
  1.1278,                                 !- Year Escalation 12
  1.1497,                                 !- Year Escalation 13
  1.1620,                                 !- Year Escalation 14
  1.1743,                                 !- Year Escalation 15
  1.1852,                                 !- Year Escalation 16
  1.1948,                                 !- Year Escalation 17
  1.2037,                                 !- Year Escalation 18
  1.2071,                                 !- Year Escalation 19
  1.2119,                                 !- Year Escalation 20
  1.2139,                                 !- Year Escalation 21
  1.2194,                                 !- Year Escalation 22
  1.2276,                                 !- Year Escalation 23
  1.2365,                                 !- Year Escalation 24
  1.2420,                                 !- Year Escalation 25
  1.2461,                                 !- Year Escalation 26
  1.2509,                                 !- Year Escalation 27
  1.2550,                                 !- Year Escalation 28
  1.2591,                                 !- Year Escalation 29
  1.2638;                                 !- Year Escalation 30

LifeCycleCost:UsePriceEscalation,
  U.S. Avg  Commercial-Natural gas,       !- Name
  NaturalGas,                             !- Resource
  2011,                                   !- Escalation Start Year
  January,                                !- Escalation Start Month
  0.9823,                                 !- Year Escalation 1
  0.9557,                                 !- Year Escalation 2
  0.9279,                                 !- Year Escalation 3
  0.9257,                                 !- Year Escalation 4
  0.9346,                                 !- Year Escalation 5
  0.9412,                                 !- Year Escalation 6
  0.9512,                                 !- Year Escalation 7
  0.9645,                                 !- Year Escalation 8
  0.9856,                                 !- Year Escalation 9
  1.0067,                                 !- Year Escalation 10
  1.0222,                                 !- Year Escalation 11
  1.0410,                                 !- Year Escalation 12
  1.0610,                                 !- Year Escalation 13
  1.0787,                                 !- Year Escalation 14
  1.0942,                                 !- Year Escalation 15
  1.1098,                                 !- Year Escalation 16
  1.1220,                                 !- Year Escalation 17
  1.1308,                                 !- Year Escalation 18
  1.1386,                                 !- Year Escalation 19
  1.1486,                                 !- Year Escalation 20
  1.1619,                                 !- Year Escalation 21
  1.1763,                                 !- Year Escalation 22
  1.1918,                                 !- Year Escalation 23
  1.2118,                                 !- Year Escalation 24
  1.2284,                                 !- Year Escalation 25
  1.2439,                                 !- Year Escalation 26
  1.2605,                                 !- Year Escalation 27
  1.2772,                                 !- Year Escalation 28
  1.2938,                                 !- Year Escalation 29
  1.3115;                                 !- Year Escalation 30

LifeCycleCost:UsePriceEscalation,
  U.S. Avg  Commercial-Coal,              !- Name
  Coal,                                   !- Resource
  2011,                                   !- Escalation Start Year
  January,                                !- Escalation Start Month
  0.9970,                                 !- Year Escalation 1
  1.0089,                                 !- Year Escalation 2
  1.0089,                                 !- Year Escalation 3
  0.9941,                                 !- Year Escalation 4
  0.9941,                                 !- Year Escalation 5
  1.0000,                                 !- Year Escalation 6
  1.0030,                                 !- Year Escalation 7
  1.0059,                                 !- Year Escalation 8
  1.0089,                                 !- Year Escalation 9
  1.0119,                                 !- Year Escalation 10
  1.0148,                                 !- Year Escalation 11
  1.0178,                                 !- Year Escalation 12
  1.0208,                                 !- Year Escalation 13
  1.0267,                                 !- Year Escalation 14
  1.0297,                                 !- Year Escalation 15
  1.0356,                                 !- Year Escalation 16
  1.0415,                                 !- Year Escalation 17
  1.0534,                                 !- Year Escalation 18
  1.0564,                                 !- Year Escalation 19
  1.0593,                                 !- Year Escalation 20
  1.0653,                                 !- Year Escalation 21
  1.0712,                                 !- Year Escalation 22
  1.0742,                                 !- Year Escalation 23
  1.0801,                                 !- Year Escalation 24
  1.0831,                                 !- Year Escalation 25
  1.0831,                                 !- Year Escalation 26
  1.0861,                                 !- Year Escalation 27
  1.0890,                                 !- Year Escalation 28
  1.0920,                                 !- Year Escalation 29
  1.0950;                                 !- Year Escalation 30

Building,
  NUs_RC0,                                !- Name
  0,                                      !- North Axis {deg}
  City,                                   !- Terrain
  ,                                       !- Loads Convergence Tolerance Value {W}
  ,                                       !- Temperature Convergence Tolerance Value {deltaC}
  FullExteriorWithReflections,            !- Solar Distribution
  ,                                       !- Maximum Number of Warmup Days
  ;                                       !- Minimum Number of Warmup Days

Shading:Building:Detailed,
  Door_6b36dfce,                          !- Name
  ,                                       !- Transmittance Schedule Name
  ,                                       !- Number of Vertices
  12.5665454731415, 5.049909104856, 2.743902439025, !- X,Y,Z Vertex 1 {m}
  12.5665454731415, 5.049909104856, 0.609756097561, !- X,Y,Z Vertex 2 {m}
  10.8246442516865, 5.049909104856, 0.609756097561, !- X,Y,Z Vertex 3 {m}
  10.8246442516865, 5.049909104856, 2.743902439025; !- X,Y,Z Vertex 4 {m}

ShadingProperty:Reflectance,
  Door_6b36dfce,                          !- Shading Surface Name
  0.3,                                    !- Diffuse Solar Reflectance of Unglazed Part of Shading Surface
  0.3,                                    !- Diffuse Visible Reflectance of Unglazed Part of Shading Surface
  0;                                      !- Fraction of Shading Surface That Is Glazed

Shading:Building:Detailed,
  Door_dd6dcd04,                          !- Name
  ,                                       !- Transmittance Schedule Name
  ,                                       !- Number of Vertices
  67.5665454731415, 5.049909104856, 2.743902439025, !- X,Y,Z Vertex 1 {m}
  67.5665454731415, 5.049909104856, 0.609756097561, !- X,Y,Z Vertex 2 {m}
  65.8246442516865, 5.049909104856, 0.609756097561, !- X,Y,Z Vertex 3 {m}
  65.8246442516865, 5.049909104856, 2.743902439025; !- X,Y,Z Vertex 4 {m}

ShadingProperty:Reflectance,
  Door_dd6dcd04,                          !- Shading Surface Name
  0.3,                                    !- Diffuse Solar Reflectance of Unglazed Part of Shading Surface
  0.3,                                    !- Diffuse Visible Reflectance of Unglazed Part of Shading Surface
  0;                                      !- Fraction of Shading Surface That Is Glazed

Shading:Building:Detailed,
  Shade_3fae0151,                         !- Name
  ,                                       !- Transmittance Schedule Name
  ,                                       !- Number of Vertices
  0.933454513549805, 0.5, 10.3425922393799, !- X,Y,Z Vertex 1 {m}
  13.0665454864502, -4.04990911483765, 5.79268312454224, !- X,Y,Z Vertex 2 {m}
  13.0665454864502, 0.5, 10.3425922393799; !- X,Y,Z Vertex 3 {m}

Shading:Building:Detailed,
  Shade_4b779013,                         !- Name
  ,                                       !- Transmittance Schedule Name
  ,                                       !- Number of Vertices
  -18, 13, 0,                             !- X,Y,Z Vertex 1 {m}
  -18, -12, 0,                            !- X,Y,Z Vertex 2 {m}
  32, -12, 0,                             !- X,Y,Z Vertex 3 {m}
  32, 13, 0;                              !- X,Y,Z Vertex 4 {m}

Shading:Building:Detailed,
  Shade_619df09a,                         !- Name
  ,                                       !- Transmittance Schedule Name
  ,                                       !- Number of Vertices
  55.9334564208984, 0.5, 10.3425922393799, !- X,Y,Z Vertex 1 {m}
  68.0665435791016, -4.04990911483765, 5.79268312454224, !- X,Y,Z Vertex 2 {m}
  68.0665435791016, 0.5, 10.3425922393799; !- X,Y,Z Vertex 3 {m}

Shading:Building:Detailed,
  Shade_750d7da0,                         !- Name
  ,                                       !- Transmittance Schedule Name
  ,                                       !- Number of Vertices
  55.9334564208984, 0.5, 10.3425922393799, !- X,Y,Z Vertex 1 {m}
  55.9334564208984, -4.04990911483765, 5.79268312454224, !- X,Y,Z Vertex 2 {m}
  68.0665435791016, -4.04990911483765, 5.79268312454224; !- X,Y,Z Vertex 3 {m}

Shading:Building:Detailed,
  Shade_926a31c9,                         !- Name
  ,                                       !- Transmittance Schedule Name
  ,                                       !- Number of Vertices
  0.933454513549805, 0.5, 10.3425922393799, !- X,Y,Z Vertex 1 {m}
  0.933454513549805, -4.04990911483765, 5.79268312454224, !- X,Y,Z Vertex 2 {m}
  13.0665454864502, -4.04990911483765, 5.79268312454224; !- X,Y,Z Vertex 3 {m}

Shading:Building:Detailed,
  Shade_aeb572ff,                         !- Name
  ,                                       !- Transmittance Schedule Name
  ,                                       !- Number of Vertices
  37, 13, 0,                              !- X,Y,Z Vertex 1 {m}
  37, -12, 0,                             !- X,Y,Z Vertex 2 {m}
  87, -12, 0,                             !- X,Y,Z Vertex 3 {m}
  87, 13, 0;                              !- X,Y,Z Vertex 4 {m}

Zone,
  000_Room_1_1b65a3c8,                    !- Name
  ,                                       !- Direction of Relative North {deg}
  0,                                      !- X Origin {m}
  0,                                      !- Y Origin {m}
  0,                                      !- Z Origin {m}
  ,                                       !- Type
  1,                                      !- Multiplier
  4.549909104856,                         !- Ceiling Height {m}
  251.175279580323,                       !- Volume {m3}
  ,                                       !- Floor Area {m2}
  ,                                       !- Zone Inside Convection Algorithm
  ,                                       !- Zone Outside Convection Algorithm
  No;                                     !- Part of Total Floor Area

Space,
  000_Room_1_1b65a3c8_Space,              !- Name
  000_Room_1_1b65a3c8,                    !- Zone Name
  ,                                       !- Ceiling Height {m}
  251.175279580323,                       !- Volume {m3}
  ;                                       !- Floor Area {m2}

BuildingSurface:Detailed,
  000_Room_1_1b65a3c8..Face0,             !- Name
  Wall,                                   !- Surface Type
  Generic Exterior Wall,                  !- Construction Name
  000_Room_1_1b65a3c8,                    !- Zone Name
  000_Room_1_1b65a3c8_Space,              !- Space Name
  Outdoors,                               !- Outside Boundary Condition
  ,                                       !- Outside Boundary Condition Object
  SunExposed,                             !- Sun Exposure
  WindExposed,                            !- Wind Exposure
  ,                                       !- View Factor to Ground
  ,                                       !- Number of Vertices
  13.0665454731415, 0.5, 10.342592031686, !- X,Y,Z Vertex 1 {m}
  13.0665454731415, -4.049909104856, 5.79268292683, !- X,Y,Z Vertex 2 {m}
  13.0665454731415, 5.049909104856, 5.79268292683; !- X,Y,Z Vertex 3 {m}

BuildingSurface:Detailed,
  000_Room_1_1b65a3c8..Face1,             !- Name
  Roof,                                   !- Surface Type
  Generic Roof,                           !- Construction Name
  000_Room_1_1b65a3c8,                    !- Zone Name
  000_Room_1_1b65a3c8_Space,              !- Space Name
  Outdoors,                               !- Outside Boundary Condition
  ,                                       !- Outside Boundary Condition Object
  SunExposed,                             !- Sun Exposure
  WindExposed,                            !- Wind Exposure
  ,                                       !- View Factor to Ground
  ,                                       !- Number of Vertices
  0.933454526858501, 0.5, 10.342592031686, !- X,Y,Z Vertex 1 {m}
  0.933454526858501, -4.049909104856, 5.79268292683, !- X,Y,Z Vertex 2 {m}
  13.0665454731415, -4.049909104856, 5.79268292683, !- X,Y,Z Vertex 3 {m}
  13.0665454731415, 0.5, 10.342592031686; !- X,Y,Z Vertex 4 {m}

BuildingSurface:Detailed,
  000_Room_1_1b65a3c8..Face2,             !- Name
  Floor,                                  !- Surface Type
  Generic Interior Floor,                 !- Construction Name
  000_Room_1_1b65a3c8,                    !- Zone Name
  000_Room_1_1b65a3c8_Space,              !- Space Name
  Surface,                                !- Outside Boundary Condition
  000_Room_2_e4e2ff8c..Face5,             !- Outside Boundary Condition Object
  NoSun,                                  !- Sun Exposure
  NoWind,                                 !- Wind Exposure
  ,                                       !- View Factor to Ground
  ,                                       !- Number of Vertices
  13.0665454731415, 5.049909104856, 5.79268292683, !- X,Y,Z Vertex 1 {m}
  13.0665454731415, -4.049909104856, 5.79268292683, !- X,Y,Z Vertex 2 {m}
  0.933454526858501, -4.049909104856, 5.79268292683, !- X,Y,Z Vertex 3 {m}
  0.933454526858501, 5.049909104856, 5.79268292683; !- X,Y,Z Vertex 4 {m}

BuildingSurface:Detailed,
  000_Room_1_1b65a3c8..Face3,             !- Name
  Roof,                                   !- Surface Type
  Generic Roof,                           !- Construction Name
  000_Room_1_1b65a3c8,                    !- Zone Name
  000_Room_1_1b65a3c8_Space,              !- Space Name
  Outdoors,                               !- Outside Boundary Condition
  ,                                       !- Outside Boundary Condition Object
  SunExposed,                             !- Sun Exposure
  WindExposed,                            !- Wind Exposure
  ,                                       !- View Factor to Ground
  ,                                       !- Number of Vertices
  13.0665454731415, 0.5, 10.342592031686, !- X,Y,Z Vertex 1 {m}
  13.0665454731415, 5.049909104856, 5.79268292683, !- X,Y,Z Vertex 2 {m}
  0.933454526858501, 5.049909104856, 5.79268292683, !- X,Y,Z Vertex 3 {m}
  0.933454526858501, 0.5, 10.342592031686; !- X,Y,Z Vertex 4 {m}

BuildingSurface:Detailed,
  000_Room_1_1b65a3c8..Face4,             !- Name
  Wall,                                   !- Surface Type
  Generic Exterior Wall,                  !- Construction Name
  000_Room_1_1b65a3c8,                    !- Zone Name
  000_Room_1_1b65a3c8_Space,              !- Space Name
  Outdoors,                               !- Outside Boundary Condition
  ,                                       !- Outside Boundary Condition Object
  SunExposed,                             !- Sun Exposure
  WindExposed,                            !- Wind Exposure
  ,                                       !- View Factor to Ground
  ,                                       !- Number of Vertices
  0.933454526858501, 0.5, 10.342592031686, !- X,Y,Z Vertex 1 {m}
  0.933454526858501, 5.049909104856, 5.79268292683, !- X,Y,Z Vertex 2 {m}
  0.933454526858501, -4.049909104856, 5.79268292683; !- X,Y,Z Vertex 3 {m}

OtherEquipment,
  Process_2b4f0dba..Room_1_1b65a3c8..000_Room_1_1b65a3c8, !- Name
  Electricity,                            !- Fuel Type
  000_Room_1_1b65a3c8_Space,              !- Zone or ZoneList or Space or SpaceList Name
  ExteriorLight,                          !- Schedule Name
  EquipmentLevel,                         !- Design Level Calculation Method
  47.341073,                              !- Design Level {W}
  ,                                       !- Power per Floor Area {W/m2}
  ,                                       !- Power per Person {W/person}
  0,                                      !- Fraction Latent
  0,                                      !- Fraction Radiant
  0,                                      !- Fraction Lost
  ,                                       !- Carbon Dioxide Generation Rate {m3/s-W}
  Exterior Lighting;                      !- End-Use Subcategory

ScheduleTypeLimits,
  Fractional,                             !- Name
  0,                                      !- Lower Limit Value {BasedOnField A3}
  1,                                      !- Upper Limit Value {BasedOnField A3}
  Continuous;                             !- Numeric Type

Schedule:Day:Interval,
  ExteriorLight_Sunday,                   !- Name
  Fractional,                             !- Schedule Type Limits Name
  No,                                     !- Interpolate to Timestep
  18:00,                                  !- Time 1 {hh:mm}
  0,                                      !- Value Until Time 1
  24:00,                                  !- Time 2 {hh:mm}
  1;                                      !- Value Until Time 2

Schedule:Week:Daily,
  ExteriorLight Week Rule - Jan1-Dec31,   !- Name
  ExteriorLight_Sunday,                   !- Sunday Schedule:Day Name
  ExteriorLight_Sunday,                   !- Monday Schedule:Day Name
  ExteriorLight_Sunday,                   !- Tuesday Schedule:Day Name
  ExteriorLight_Sunday,                   !- Wednesday Schedule:Day Name
  ExteriorLight_Sunday,                   !- Thursday Schedule:Day Name
  ExteriorLight_Sunday,                   !- Friday Schedule:Day Name
  ExteriorLight_Sunday,                   !- Saturday Schedule:Day Name
  {13723f28-1769-4295-85fa-18c9fd7ff9db}, !- Holiday Schedule:Day Name
  {8838a538-05f9-4857-b9d3-025e0a7568fd}, !- SummerDesignDay Schedule:Day Name
  {e204b0d8-9768-408d-896f-6a89e1b414cc}, !- WinterDesignDay Schedule:Day Name
  ExteriorLight_Sunday,                   !- CustomDay1 Schedule:Day Name
  ExteriorLight_Sunday;                   !- CustomDay2 Schedule:Day Name

Schedule:Year,
  ExteriorLight,                          !- Name
  Fractional,                             !- Schedule Type Limits Name
  ExteriorLight Week Rule - Jan1-Dec31,   !- Schedule:Week Name 1
  1,                                      !- Start Month 1
  1,                                      !- Start Day 1
  12,                                     !- End Month 1
  31;                                     !- End Day 1

Schedule:Day:Interval,
  {8838a538-05f9-4857-b9d3-025e0a7568fd}, !- Name
  Fractional,                             !- Schedule Type Limits Name
  No,                                     !- Interpolate to Timestep
  18:00,                                  !- Time 1 {hh:mm}
  0,                                      !- Value Until Time 1
  24:00,                                  !- Time 2 {hh:mm}
  1;                                      !- Value Until Time 2

Schedule:Day:Interval,
  {e204b0d8-9768-408d-896f-6a89e1b414cc}, !- Name
  Fractional,                             !- Schedule Type Limits Name
  No,                                     !- Interpolate to Timestep
  18:00,                                  !- Time 1 {hh:mm}
  0,                                      !- Value Until Time 1
  24:00,                                  !- Time 2 {hh:mm}
  1;                                      !- Value Until Time 2

Schedule:Day:Interval,
  {13723f28-1769-4295-85fa-18c9fd7ff9db}, !- Name
  Fractional,                             !- Schedule Type Limits Name
  No,                                     !- Interpolate to Timestep
  18:00,                                  !- Time 1 {hh:mm}
  0,                                      !- Value Until Time 1
  24:00,                                  !- Time 2 {hh:mm}
  1;                                      !- Value Until Time 2

ZoneInfiltration:DesignFlowRate,
  Infiltration_30dd23a5..000_Room_1_1b65a3c8, !- Name
  000_Room_1_1b65a3c8_Space,              !- Zone or ZoneList or Space or SpaceList Name
  Always On,                              !- Schedule Name
  Flow/ExteriorArea,                      !- Design Flow Rate Calculation Method
  ,                                       !- Design Flow Rate {m3/s}
  ,                                       !- Flow Rate per Floor Area {m3/s-m2}
  0.0001,                                 !- Flow Rate per Exterior Surface Area {m3/s-m2}
  ,                                       !- Air Changes per Hour {1/hr}
  1,                                      !- Constant Term Coefficient
  0,                                      !- Temperature Term Coefficient
  0,                                      !- Velocity Term Coefficient
  ;                                       !- Velocity Squared Term Coefficient

Zone,
  000_Room_2_e4e2ff8c,                    !- Name
  ,                                       !- Direction of Relative North {deg}
  0,                                      !- X Origin {m}
  0,                                      !- Y Origin {m}
  0,                                      !- Z Origin {m}
  ,                                       !- Type
  1,                                      !- Multiplier
  2.591463414635,                         !- Ceiling Height {m}
  286.120681838863,                       !- Volume {m3}
  ,                                       !- Floor Area {m2}
  ,                                       !- Zone Inside Convection Algorithm
  ,                                       !- Zone Outside Convection Algorithm
  Yes;                                    !- Part of Total Floor Area

Space,
  000_Room_2_e4e2ff8c_Space,              !- Name
  000_Room_2_e4e2ff8c,                    !- Zone Name
  ,                                       !- Ceiling Height {m}
  286.120681838863,                       !- Volume {m3}
  ,                                       !- Floor Area {m2}
  ProgramType_bb4bd189;                   !- Space Type

SpaceList,
  ProgramType_bb4bd189,                   !- Name
  000_Room_2_e4e2ff8c_Space,              !- Space Name 1
  000_Room_3_0d1459e1_Space,              !- Space Name 2
  5500_Room_3_0d1459e1_Space,             !- Space Name 3
  5500_Room_2_e4e2ff8c_Space;             !- Space Name 4

Lights,
  MidriseApartment Apartment Light,       !- Name
  ProgramType_bb4bd189,                   !- Zone or ZoneList or Space or SpaceList Name
  MidriseApartment Apartment Light,       !- Schedule Name